@<TRIPOS>MOLECULE
OLC
53   52    1
SMALL
USER_CHARGES


@<TRIPOS>ATOM
      1 C2          4.1480    7.3530  -18.2370 C.3       1 OLC         0.0000 
      2 C1          2.8190    7.9130  -18.7600 C.2       1 OLC         0.0000 
      3 C3          4.3360    5.8400  -18.5290 C.3       1 OLC         0.0000 
      4 O1          1.9970    8.3320  -17.9140 O.co2     1 OLC         0.0000 
      5 O2          2.6190    7.8860  -19.9950 O.co2     1 OLC         0.0000 
      6 C4          3.2260    4.9130  -17.9670 C.3       1 OLC         0.0000 
      7 C5          3.4280    3.4260  -18.3240 C.3       1 OLC         0.0000 
      8 C6          2.2930    2.4920  -17.8360 C.3       1 OLC         0.0000 
      9 C7          2.5360    1.0150  -18.2290 C.3       1 OLC         0.0000 
     10 C8          1.7830   -0.0560  -17.3920 C.3       1 OLC         0.0000 
     11 C9          2.5010   -1.4070  -17.4070 C.2       1 OLC         0.0000 
     12 C10         2.0740   -2.6590  -17.1330 C.2       1 OLC         0.0000 
     13 C11         0.7080   -3.1410  -16.6700 C.3       1 OLC         0.0000 
     14 C12        -0.2510   -3.5730  -17.8030 C.3       1 OLC         0.0000 
     15 C13        -0.4350   -2.4320  -18.8060 C.3       1 OLC         0.0000 
     16 C14        -1.5220   -2.5620  -19.8740 C.3       1 OLC         0.0000 
     17 C15        -1.5870   -1.2340  -20.6590 C.3       1 OLC         0.0000 
     18 C16        -2.9640   -0.8810  -21.2330 C.3       1 OLC         0.0000 
     19 C17        -2.9940    0.5810  -21.7150 C.3       1 OLC         0.0000 
     20 C18        -4.3700    1.0210  -22.2220 C.3       1 OLC         0.0000 
     21 H1          4.9530    7.9210  -18.7080 H         1 OLC         0.0000 
     22 H2          4.2420    7.5600  -17.1720 H         1 OLC         0.0000 
     23 H3          4.4170    5.7050  -19.6100 H         1 OLC         0.0000 
     24 H4          5.3050    5.5410  -18.1220 H         1 OLC         0.0000 
     25 H5          3.1680    5.0410  -16.8850 H         1 OLC         0.0000 
     26 H6          2.2600    5.2410  -18.3540 H         1 OLC         0.0000 
     27 H7          3.5280    3.3410  -19.4070 H         1 OLC         0.0000 
     28 H8          4.3820    3.1000  -17.9080 H         1 OLC         0.0000 
     29 H9          2.2070    2.5940  -16.7550 H         1 OLC         0.0000 
     30 H10         1.3380    2.8280  -18.2430 H         1 OLC         0.0000 
     31 H11         2.3030    0.8780  -19.2870 H         1 OLC         0.0000 
     32 H12         3.6090    0.8370  -18.1620 H         1 OLC         0.0000 
     33 H13         1.6940    0.2600  -16.3540 H         1 OLC         0.0000 
     34 H14         0.7650   -0.1370  -17.7540 H         1 OLC         0.0000 
     35 H15         3.5320   -1.3320  -17.6910 H         1 OLC         0.0000 
     36 H16         2.8010   -3.4440  -17.2450 H         1 OLC         0.0000 
     37 H17         0.8600   -3.9790  -15.9880 H         1 OLC         0.0000 
     38 H18         0.2490   -2.3790  -16.0520 H         1 OLC         0.0000 
     39 H19         0.1190   -4.4660  -18.3060 H         1 OLC         0.0000 
     40 H20        -0.6820   -1.5560  -18.2130 H         1 OLC         0.0000 
     41 H21        -1.3140   -3.4000  -20.5420 H         1 OLC         0.0000 
     42 H22        -2.4770   -2.7810  -19.3970 H         1 OLC         0.0000 
     43 H23        -1.2950   -0.4090  -20.0040 H         1 OLC         0.0000 
     44 H24        -0.8350   -1.2390  -21.4510 H         1 OLC         0.0000 
     45 H25        -3.2110   -1.5620  -22.0490 H         1 OLC         0.0000 
     46 H26        -3.7250   -1.0220  -20.4640 H         1 OLC         0.0000 
     47 H27        -2.6970    1.2420  -20.8970 H         1 OLC         0.0000 
     48 H28        -2.2490    0.7270  -22.4990 H         1 OLC         0.0000 
     49 H29        -4.3480    2.0680  -22.5280 H         1 OLC         0.0000 
     50 H30        -4.6800    0.4300  -23.0840 H         1 OLC         0.0000 
     51 H31        -5.1290    0.9190  -21.4460 H         1 OLC         0.0000 
     52 H32        -1.2130   -3.8390  -17.3650 H         1 OLC         0.0000 
     53 H33         0.5150   -2.2200  -19.2980 H         1 OLC         0.0000 
@<TRIPOS>BOND
     1    1    2 1    
     2    1    3 1    
     3    1   21 1    
     4    1   22 1    
     5    2    4 2    
     6    2    5 1    
     7    3    6 1    
     8    3   23 1    
     9    3   24 1    
    10    6    7 1    
    11    6   25 1    
    12    6   26 1    
    13    7    8 1    
    14    7   27 1    
    15    7   28 1    
    16    8    9 1    
    17    8   29 1    
    18    8   30 1    
    19    9   10 1    
    20    9   31 1    
    21    9   32 1    
    22   10   11 1    
    23   10   33 1    
    24   10   34 1    
    25   11   12 2    
    26   11   35 1    
    27   12   13 1    
    28   12   36 1    
    29   13   14 1    
    30   13   37 1    
    31   13   38 1    
    32   14   15 1    
    33   14   39 1    
    34   14   52 1    
    35   15   16 1    
    36   15   40 1    
    37   15   53 1    
    38   16   17 1    
    39   16   41 1    
    40   16   42 1    
    41   17   18 1    
    42   17   43 1    
    43   17   44 1    
    44   18   19 1    
    45   18   45 1    
    46   18   46 1    
    47   19   20 1    
    48   19   47 1    
    49   19   48 1    
    50   20   49 1    
    51   20   50 1    
    52   20   51 1    
@<TRIPOS>SUBSTRUCTURE
     1 OLC         1 GROUP             0 L     ****    0 ROOT    
